Circuit: * C:\UserData\z003tf7t\Documents\GitHub\Synthesis-Projects\VCA_mix.asc

WARNING: Less than two connections to node NC_01.  This node is used by Q:U1:N11.
WARNING: Less than two connections to node NC_03.  This node is used by Q:U4:N11.
Direct Newton iteration failed to find .op point.  (Use ".option noopiter" to skip.)
Starting Gmin stepping
Gmin = 10
Gmin = 1.07374
Gmin = 0.115292
Gmin = 0.0123794
Gmin = 0.00132923
Gmin = 0.000142725
Gmin = 1.5325e-005
Gmin = 1.6455e-006
Gmin = 1.76685e-007
Gmin = 1.89714e-008
Gmin = 2.03704e-009
Gmin = 2.18725e-010
Gmin = 2.34854e-011
Gmin = 2.52173e-012
Gmin = 2.70769e-013
Gmin = 0
Gmin stepping succeeded in finding the operating point.


Date: Thu Apr 20 12:51:32 2023
Total elapsed time: 0.415 seconds.

tnom = 27
temp = 27
method = modified trap
totiter = 3438
traniter = 2870
tranpoints = 1392
accept = 1193
rejected = 199
matrix size = 101
fillins = 120
solver = Normal
Thread vector: 43.0/25.5[6] 13.7/7.6[6] 13.3/7.9[6] 0.7/3.9[1]  2592/500
Matrix Compiler1: 23.63 KB object code size  10.9/3.3/[1.3]
Matrix Compiler2: 12.96 KB object code size  3.3/3.9/[1.0]

