Circuit: * C:\UserData\z003tf7t\Documents\GitHub\Synthesis-Projects\VCA_mix.asc

WARNING: Less than two connections to node NC_01.  This node is used by Q:U1:N11.
WARNING: Less than two connections to node NC_03.  This node is used by Q:U4:N11.
Direct Newton iteration failed to find .op point.  (Use ".option noopiter" to skip.)
Starting Gmin stepping
Gmin = 10
Gmin = 1.07374
Gmin = 0.115292
Gmin = 0.0123794
Gmin = 0.00132923
Gmin = 0.000142725
Gmin = 1.5325e-005
Gmin = 1.6455e-006
Gmin = 1.76685e-007
Gmin = 1.89714e-008
Gmin = 2.03704e-009
Gmin = 2.18725e-010
Gmin = 2.34854e-011
Gmin = 2.52173e-012
Gmin = 2.70769e-013
Gmin = 0
Gmin stepping succeeded in finding the operating point.


Date: Tue Apr 18 10:57:08 2023
Total elapsed time: 0.564 seconds.

tnom = 27
temp = 27
method = modified trap
totiter = 3326
traniter = 2770
tranpoints = 1360
accept = 1168
rejected = 192
matrix size = 87
fillins = 106
solver = Normal
Thread vector: 36.2/27.0[4] 28.0/10.3[4] 19.0/11.6[4] 0.6/4.4[1]  2592/500
Matrix Compiler1: 20.22 KB object code size  6.0/4.8/[3.9]
Matrix Compiler2: 11.09 KB object code size  4.0/4.7/[0.8]

