Circuit: * C:\UserData\z003tf7t\Documents\GitHub\Synthesis-Projects\VCA_mix.asc

WARNING: Less than two connections to node NC_01.  This node is used by Q:U1:N11.
WARNING: Less than two connections to node NC_03.  This node is used by Q:U4:N11.
Direct Newton iteration failed to find .op point.  (Use ".option noopiter" to skip.)
Starting Gmin stepping
Gmin = 10
Gmin = 1.07374
Gmin = 0.115292
Gmin = 0.0123794
Gmin = 0.00132923
Gmin = 0.000142725
Gmin = 1.5325e-005
Gmin = 1.6455e-006
Gmin = 1.76685e-007
Gmin = 1.89714e-008
Gmin = 2.03704e-009
Gmin = 2.18725e-010
Gmin = 2.34854e-011
Gmin = 2.52173e-012
Gmin = 2.70769e-013
Gmin = 0
Gmin stepping succeeded in finding the operating point.


Date: Thu Apr 20 11:31:49 2023
Total elapsed time: 0.547 seconds.

tnom = 27
temp = 27
method = modified trap
totiter = 3454
traniter = 2886
tranpoints = 1400
accept = 1195
rejected = 205
matrix size = 101
fillins = 125
solver = Normal
Thread vector: 100.8/19.3[6] 23.1/6.8[6] 20.7/11.6[6] 0.6/7.5[1]  2592/500
Matrix Compiler1: 24.08 KB object code size  8.9/5.1/[2.3]
Matrix Compiler2: 13.04 KB object code size  3.3/7.6/[0.7]

